src/test/resources/pst_special/process1/20260620_1130_2D3_UX0.uct
##C 2007.05.01
##N
##ZAT
OGREUT21 Greuth       0 0        19.1401 7.87378 2.15531 -38.829 4.56452 5.45228 6.13598 -59.120                               F
OLIENN11 Lienz        0 0        4.00046 9.69006 2.59554 -9.2116 3.11986 4.84183 9.86384 -7.6100                               F
OLIENN21 Lienz        0 0        41.6150 9.45557 -54.822 5.72164 76.4652 -047.98 9.60193 7.84512                               F
OLIENN22 Lienz        0 0        6.62111 4.31847 2.47888 7.09541
OMALTA21 Malta Haupts 0 2 902.91 958.973 7.97208 12.8412 -32.822 849.642 -4705.9 204.808 -731.98                               F
OMALTA22 Malta Haupts 0 0        6.01585 3.47794 11.4481 -34.879 023.950 -3680.0 9.87152 -22.225                               F
OROSEG21 Rosegg       0 0        8.45570 0.35254 -54.377 -1.3789 8.19377 -02.948 5.18888 -6.1243                               F
##ZIT
IMFTV121 MONFALC.CE g 0 0        1.30301 7.46569 5.61648 2.14935
IPDRV121 PADRICIANO g 0 0        24.2865 -54.735 0.65947 7.60452
IPDRV122 PADRICIANO g 0 0        0.45325 6.80037 0.01831 2.76429
IRDPVA21 REDIPUGLIA g 0 0        07.5040 68.9876 2.58189 1.12917
##ZSI
LBERIC1  BERICEVO     0 0        0.44086 3.84982 3.99741 2.53950
LDIVAC11 DIVACA       0 0        5.39318 6.02714 4.37174 0.14051
LDIVAC12 LDIVAC12     0 0        3.70487 4.25351 2.74581 6.95303
LDIVAC51 LDIVAC51     0 0        349.069 5.04755 5.32934 1.30763
##ZXX
XLI_SO21 LNZO    211  1 0        3.00182 3.24574 0.28827 1.53497
XME_DI11              1 0        9.60420 6.04741 8.23905 5.80644
XPA_DI21              1 0        0.66031 7.47832 6.64977 4.25000
XRE_DI11              1 0        1.57041 9.20359 0.45217 0.75153
##L
IMFTV121 IPDRV121 1 0 4.7088 74.794 727.9609    900 XXXXXXXXXXXX
IMFTV121 IRDPVA21 1 0 6.5247 4.5343 37.10102    810 XXXXXXXXXXXX
IRDPVA21 IPDRV121 1 0 6.5749 60.281 982.2081    855 XXXXXXXXXXXX
LDIVAC11 LBERIC1  1 0 0.1926 31.138 966.9882   1920 XXXXXXXXXXXX
LDIVAC11 XME_DI11 1 1 7.7770 35.917 824.5165   1920
LDIVAC12 LDIVAC11 2 7 0.3286 4.6176 6.000254   9999 XXXXXXXXXXXX
LDIVAC12 XRE_DI11 1 1 3.7009 3.6017 56.14574   2450
OGREUT21 OLIENN21 1 0 7.8699 32.822 020.3306   2080 XXXXXXXXXXXX
OLIENN21 OLIENN22 1 7 5.5340 7.7937 2.085444   2154 XXXXXXXXXXXX
OLIENN21 OMALTA21 1 0 4.8330 03.938 712.9003   2400 XXXXXXXXXXXX
OLIENN21 OMALTA22 2 0 9.1596 73.184 763.6955   2400 XXXXXXXXXXXX
OLIENN21 OROSEG21 1 0 6.3042 98.031 222.1352   2000 XXXXXXXXXXXX
OLIENN22 XLI_SO21 1 1 1.3569 35.807 687.4659    704
OMALTA21 OMALTA22 1 2 5.1447 4.0844 3.586624   2000 XXXXXXXXXXXX
XPA_DI21 IPDRV122 1 1 5.6224 4.6476 98.93845    960
##T
IPDRV121 IPDRV122 1 0 584.2 733.9 945.8 2.6900 54.797 -4.18611 8.7496    928 XXXXXXXXXXXX
LDIVAC11 LDIVAC12 1 0 087.9 508.6 1200. 1.0659 85.451 -6.52969 6.2095   1732 XXXXXXXXXXXX
LDIVAC51 LDIVAC11 1 0 223.1 868.8 930.4 4.3844 9.2793 -252.826 08.819   1506 XXXXXXXXXXXX
OLIENN21 OLIENN11 1 0 325.1 296.6 017.3 5.9969 43.625 -01.7953 5.4745   1556 XXXXXXXXXXXX
OLIENN21 OLIENN11 2 0 781.7 056.6 442.1 2.6690 58.483 -18.7535 1.5294   1556 XXXXXXXXXXXX
OLIENN21 OLIENN22 2 0 410.6 465.4 464.9 5.9156 15.757 2.311162 9.3865    746 XXXXXXXXXXXX
##R
IPDRV121 IPDRV122 1                    3.402 02.27 16  -6 2.826 SYMM
LDIVAC11 LDIVAC12 1                    8.704 69.15 32   0       SYMM
LDIVAC51 LDIVAC11 1 5.092 12  -1
OLIENN21 OLIENN11 1                    0.063 15.36 13   0       ASYM
OLIENN21 OLIENN11 2                    7.991 45.20 13   0       ASYM
OLIENN21 OLIENN22 2                    1.350 47.58 32   0       SYMM
